AT_BANNER([JavaScript.])

AT_SETUP([Mocha])
AT_DATA([package.json],
[[{
  "name": "]AT_PACKAGE_TARNAME[",
  "version": "]AT_PACKAGE_VERSION[",
  "homepage": "]AT_PACKAGE_URL[",
  "bugs": "]AT_PACKAGE_BUGREPORT[",
  "license": "MPL-2.0",
  "scripts": {
    "test": "mocha"
  },
  "devDependencies": {
    "mocha": "^2.2.4",
    "chai": "^2.3.0"
  }
}
]])
AT_DATA([crosswalk.js],
[[exports.stub = function() {
  extension = {
    listener: null,

    setMessageListener: function(f) {
      this.listener = f;
    },

    postMessage: function(msg) {
      var json = JSON.parse(msg);
      var res = { id: json.id };
      var cb;

      if (json.cmd === 'scan-finger') {
        res.length = 1;
        res['0'] = null;
      } else if (json.cmd === 'verify-finger') {
        res.length = 2;
        res['0'] = null;
        res['1'] = true;
      } else if (json.cmd === 'delete-finger') {
        res.length = 1;
        res['0'] = null;
      }

      var resMessage = JSON.stringify(res);
      cb = this.listener.bind(null, resMessage);
      setTimeout(cb, 0);
    }
  };

  return extension;
}
]])
AT_CHECK([mkdir -p test], [0], [ignore], [ignore])
AT_DATA([[test/test.js]],
[[var should;
var fingerprint;

describe(']AT_PACKAGE_TARNAME[', function() {
  beforeEach(function() {
    require('../crosswalk').stub();
    fingerprint = require(process.env.jspath);
    should = require('chai').should();
  });

  describe('scanFinger()', function() {
    it('should not throw with valid arguments', function(done) {
      fingerprint.scanFinger('Dutch', 'M', 'Thumb', function(err) {
        should.not.exist(err);
        done();
      });
    });
  });
});
]])
AT_CHECK([cp -r $MODPATH .], [0], [ignore], [ignore])
AT_CHECK([jspath=$JSPATH npm test], [0], [ignore], [ignore])
AT_CLEANUP
